
 OpenBabel09292520433D

 31 32  0  0  0  0  0  0  0  0999 V2000
    6.4310    0.0772    1.9433 C   0  0  0  0  0  0  0  0  0  0  0  0
    5.2642    0.0903    1.0560 N   0  0  0  0  0  0  0  0  0  0  0  0
    4.1339    0.7217    1.7370 C   0  0  0  0  0  0  0  0  0  0  0  0
    5.6149    0.7769   -0.2077 C   0  0  0  0  0  0  0  0  0  0  0  0
    4.4846    0.8345   -1.2501 C   0  0  0  0  0  0  0  0  0  0  0  0
    4.9028    1.5574   -2.4961 C   0  0  0  0  0  0  0  0  0  0  0  0
    4.7937    2.9174   -2.7160 C   0  0  0  0  0  0  0  0  0  0  0  0
    5.2545    3.1877   -3.9745 N   0  0  0  0  0  0  0  0  0  0  0  0
    5.6736    2.0299   -4.5867 C   0  0  0  0  0  0  0  0  0  0  0  0
    6.2036    1.8338   -5.8680 C   0  0  0  0  0  0  0  0  0  0  0  0
    6.5561    0.5316   -6.2332 C   0  0  0  0  0  0  0  0  0  0  0  0
    6.3922   -0.5332   -5.3495 C   0  0  0  0  0  0  0  0  0  0  0  0
    5.8602   -0.3150   -4.0742 C   0  0  0  0  0  0  0  0  0  0  0  0
    5.7129   -1.3702   -3.2082 O   0  0  0  0  0  0  0  0  0  0  0  0
    5.4815    0.9863   -3.6789 C   0  0  0  0  0  0  0  0  0  0  0  0
    6.2088   -0.4714    2.8655 H   0  0  0  0  0  0  0  0  0  0  0  0
    6.7528    1.0895    2.2152 H   0  0  0  0  0  0  0  0  0  0  0  0
    7.2740   -0.4371    1.4687 H   0  0  0  0  0  0  0  0  0  0  0  0
    3.9372    0.2291    2.6961 H   0  0  0  0  0  0  0  0  0  0  0  0
    3.2120    0.6139    1.1571 H   0  0  0  0  0  0  0  0  0  0  0  0
    4.3078    1.7868    1.9269 H   0  0  0  0  0  0  0  0  0  0  0  0
    6.4631    0.2472   -0.6631 H   0  0  0  0  0  0  0  0  0  0  0  0
    5.9643    1.7968    0.0046 H   0  0  0  0  0  0  0  0  0  0  0  0
    3.6145    1.3627   -0.8424 H   0  0  0  0  0  0  0  0  0  0  0  0
    4.1431   -0.1778   -1.4932 H   0  0  0  0  0  0  0  0  0  0  0  0
    4.4203    3.7111   -2.0825 H   0  0  0  0  0  0  0  0  0  0  0  0
    5.2829    4.1032   -4.3998 H   0  0  0  0  0  0  0  0  0  0  0  0
    6.3358    2.6599   -6.5588 H   0  0  0  0  0  0  0  0  0  0  0  0
    6.9668    0.3488   -7.2239 H   0  0  0  0  0  0  0  0  0  0  0  0
    6.6815   -1.5297   -5.6683 H   0  0  0  0  0  0  0  0  0  0  0  0
    6.0537   -2.1723   -3.6331 H   0  0  0  0  0  0  0  0  0  0  0  0
  1  2  1  0  0  0  0
  1 16  1  0  0  0  0
  1 17  1  0  0  0  0
  1 18  1  0  0  0  0
  2  3  1  0  0  0  0
  2  4  1  0  0  0  0
  3 19  1  0  0  0  0
  3 20  1  0  0  0  0
  3 21  1  0  0  0  0
  4  5  1  0  0  0  0
  4 22  1  0  0  0  0
  4 23  1  0  0  0  0
  5  6  1  0  0  0  0
  5 24  1  0  0  0  0
  5 25  1  0  0  0  0
  6  7  2  0  0  0  0
  6 15  1  0  0  0  0
  7  8  1  0  0  0  0
  7 26  1  0  0  0  0
  8  9  1  0  0  0  0
  8 27  1  0  0  0  0
  9 10  1  0  0  0  0
  9 15  2  0  0  0  0
 10 11  2  0  0  0  0
 10 28  1  0  0  0  0
 11 12  1  0  0  0  0
 11 29  1  0  0  0  0
 12 13  2  0  0  0  0
 12 30  1  0  0  0  0
 13 14  1  0  0  0  0
 13 15  1  0  0  0  0
 14 31  1  0  0  0  0
M  END
$$$$
