
 OpenBabel09292520433D

 25 26  0  0  0  0  0  0  0  0999 V2000
    0.8971   -0.0060    1.6123 N   0  0  0  0  0  0  0  0  0  0  0  0
    2.3602    0.0041    1.6934 C   0  0  0  0  0  0  0  0  0  0  0  0
    2.9688   -1.1343    0.8674 C   0  0  0  0  0  0  0  0  0  0  0  0
    4.4631   -1.1854    0.9584 C   0  0  0  0  0  0  0  0  0  0  0  0
    5.3642   -0.5628    0.1166 C   0  0  0  0  0  0  0  0  0  0  0  0
    6.6307   -0.8932    0.5191 N   0  0  0  0  0  0  0  0  0  0  0  0
    6.5811   -1.7217    1.6161 C   0  0  0  0  0  0  0  0  0  0  0  0
    7.6165   -2.3144    2.3511 C   0  0  0  0  0  0  0  0  0  0  0  0
    7.2629   -3.1262    3.4348 C   0  0  0  0  0  0  0  0  0  0  0  0
    5.9254   -3.3250    3.7571 C   0  0  0  0  0  0  0  0  0  0  0  0
    5.5605   -4.1118    4.8107 O   0  0  0  0  0  0  0  0  0  0  0  0
    4.9017   -2.7340    3.0178 C   0  0  0  0  0  0  0  0  0  0  0  0
    5.2331   -1.9145    1.9199 C   0  0  0  0  0  0  0  0  0  0  0  0
    0.5250    0.7377    2.2018 H   0  0  0  0  0  0  0  0  0  0  0  0
    0.5433   -0.8793    2.0024 H   0  0  0  0  0  0  0  0  0  0  0  0
    2.6599   -0.0815    2.7444 H   0  0  0  0  0  0  0  0  0  0  0  0
    2.7268    0.9707    1.3296 H   0  0  0  0  0  0  0  0  0  0  0  0
    2.6738   -1.0282   -0.1844 H   0  0  0  0  0  0  0  0  0  0  0  0
    2.5584   -2.0944    1.2060 H   0  0  0  0  0  0  0  0  0  0  0  0
    5.2097    0.0767   -0.7426 H   0  0  0  0  0  0  0  0  0  0  0  0
    7.4825   -0.5850    0.0715 H   0  0  0  0  0  0  0  0  0  0  0  0
    8.6583   -2.1572    2.0910 H   0  0  0  0  0  0  0  0  0  0  0  0
    8.0515   -3.5963    4.0144 H   0  0  0  0  0  0  0  0  0  0  0  0
    6.3642   -4.4633    5.2269 H   0  0  0  0  0  0  0  0  0  0  0  0
    3.8656   -2.9109    3.2871 H   0  0  0  0  0  0  0  0  0  0  0  0
  1  2  1  0  0  0  0
  1 14  1  0  0  0  0
  1 15  1  0  0  0  0
  2  3  1  0  0  0  0
  2 16  1  0  0  0  0
  2 17  1  0  0  0  0
  3  4  1  0  0  0  0
  3 18  1  0  0  0  0
  3 19  1  0  0  0  0
  4  5  2  0  0  0  0
  4 13  1  0  0  0  0
  5  6  1  0  0  0  0
  5 20  1  0  0  0  0
  6  7  1  0  0  0  0
  6 21  1  0  0  0  0
  7  8  1  0  0  0  0
  7 13  2  0  0  0  0
  8  9  2  0  0  0  0
  8 22  1  0  0  0  0
  9 10  1  0  0  0  0
  9 23  1  0  0  0  0
 10 11  1  0  0  0  0
 10 12  2  0  0  0  0
 11 24  1  0  0  0  0
 12 13  1  0  0  0  0
 12 25  1  0  0  0  0
M  END
$$$$
