DMT_like
     RDKit          3D

 31 32  0  0  0  0  0  0  0  0999 V2000
   -3.2975    0.8247   -1.0769 C   0  0  0  0  0  0  0  0  0  0  0  0
   -2.9383   -0.1998   -0.0355 N   0  0  0  0  0  0  0  0  0  0  0  0
   -3.7453    0.0023    1.2210 C   0  0  0  0  0  0  0  0  0  0  0  0
   -1.4497   -0.2494    0.2773 C   0  0  0  0  0  0  0  0  0  0  0  0
   -0.6364   -0.7900   -0.9029 C   0  0  0  0  0  0  0  0  0  0  0  0
    0.7930   -0.9925   -0.5256 C   0  0  0  0  0  0  0  0  0  0  0  0
    1.3896   -2.1917   -0.1889 C   0  0  0  0  0  0  0  0  0  0  0  0
    2.7078   -1.9509    0.0992 N   0  0  0  0  0  0  0  0  0  0  0  0
    2.9829   -0.6102   -0.0312 C   0  0  0  0  0  0  0  0  0  0  0  0
    4.1821    0.0833    0.1690 C   0  0  0  0  0  0  0  0  0  0  0  0
    4.1778    1.4626   -0.0527 C   0  0  0  0  0  0  0  0  0  0  0  0
    3.0204    2.1191   -0.4617 C   0  0  0  0  0  0  0  0  0  0  0  0
    1.8288    1.4107   -0.6574 C   0  0  0  0  0  0  0  0  0  0  0  0
    1.8049    0.0177   -0.4350 C   0  0  0  0  0  0  0  0  0  0  0  0
   -2.8128    0.5502   -2.0158 H   0  0  0  0  0  0  0  0  0  0  0  0
   -4.3824    0.8061   -1.2121 H   0  0  0  0  0  0  0  0  0  0  0  0
   -2.9645    1.8067   -0.7308 H   0  0  0  0  0  0  0  0  0  0  0  0
   -3.2056   -1.1221   -0.4055 H   0  0  0  0  0  0  0  0  0  0  0  0
   -4.8048   -0.0304    0.9534 H   0  0  0  0  0  0  0  0  0  0  0  0
   -3.4787    0.9701    1.6542 H   0  0  0  0  0  0  0  0  0  0  0  0
   -3.5137   -0.8148    1.9093 H   0  0  0  0  0  0  0  0  0  0  0  0
   -1.1406    0.7619    0.5658 H   0  0  0  0  0  0  0  0  0  0  0  0
   -1.3347   -0.9102    1.1449 H   0  0  0  0  0  0  0  0  0  0  0  0
   -1.0641   -1.7408   -1.2448 H   0  0  0  0  0  0  0  0  0  0  0  0
   -0.6844   -0.1005   -1.7533 H   0  0  0  0  0  0  0  0  0  0  0  0
    1.0013   -3.2009   -0.1366 H   0  0  0  0  0  0  0  0  0  0  0  0
    3.3889   -2.6505    0.3652 H   0  0  0  0  0  0  0  0  0  0  0  0
    5.0898   -0.4250    0.4800 H   0  0  0  0  0  0  0  0  0  0  0  0
    5.0962    2.0293    0.0902 H   0  0  0  0  0  0  0  0  0  0  0  0
    3.0468    3.1925   -0.6369 H   0  0  0  0  0  0  0  0  0  0  0  0
    0.9431    1.9424   -0.9885 H   0  0  0  0  0  0  0  0  0  0  0  0
  1  2  1  0
  2  3  1  0
  2  4  1  0
  4  5  1  0
  5  6  1  0
  6  7  2  0
  7  8  1  0
  8  9  1  0
  9 10  2  0
 10 11  1  0
 11 12  2  0
 12 13  1  0
 13 14  2  0
 14  6  1  0
 14  9  1  0
  1 15  1  0
  1 16  1  0
  1 17  1  0
  2 18  1  0
  3 19  1  0
  3 20  1  0
  3 21  1  0
  4 22  1  0
  4 23  1  0
  5 24  1  0
  5 25  1  0
  7 26  1  0
  8 27  1  0
 10 28  1  0
 11 29  1  0
 12 30  1  0
 13 31  1  0
M  CHG  1   2   1
M  END
$$$$
DMT_like
     RDKit          3D

 30 31  0  0  0  0  0  0  0  0999 V2000
   -3.0295    1.8329    0.0775 C   0  0  0  0  0  0  0  0  0  0  0  0
   -3.0448    0.3727    0.1852 N   0  0  0  0  0  0  0  0  0  0  0  0
   -3.8431   -0.0267    1.3479 C   0  0  0  0  0  0  0  0  0  0  0  0
   -1.6808   -0.1853    0.3002 C   0  0  0  0  0  0  0  0  0  0  0  0
   -0.8421   -0.0405   -0.9822 C   0  0  0  0  0  0  0  0  0  0  0  0
    0.4920   -0.7143   -0.8608 C   0  0  0  0  0  0  0  0  0  0  0  0
    0.8208   -1.9711   -1.3307 C   0  0  0  0  0  0  0  0  0  0  0  0
    2.1302   -2.2183   -1.0193 N   0  0  0  0  0  0  0  0  0  0  0  0
    2.6715   -1.1460   -0.3501 C   0  0  0  0  0  0  0  0  0  0  0  0
    3.9627   -0.9580    0.1577 C   0  0  0  0  0  0  0  0  0  0  0  0
    4.2361    0.2527    0.8009 C   0  0  0  0  0  0  0  0  0  0  0  0
    3.2562    1.2339    0.9291 C   0  0  0  0  0  0  0  0  0  0  0  0
    1.9704    1.0291    0.4153 C   0  0  0  0  0  0  0  0  0  0  0  0
    1.6677   -0.1837   -0.2376 C   0  0  0  0  0  0  0  0  0  0  0  0
   -4.0520    2.2253    0.0311 H   0  0  0  0  0  0  0  0  0  0  0  0
   -2.5417    2.1577   -0.8466 H   0  0  0  0  0  0  0  0  0  0  0  0
   -2.5205    2.3052    0.9255 H   0  0  0  0  0  0  0  0  0  0  0  0
   -3.4216    0.3483    2.2877 H   0  0  0  0  0  0  0  0  0  0  0  0
   -3.9135   -1.1183    1.4114 H   0  0  0  0  0  0  0  0  0  0  0  0
   -4.8698    0.3454    1.2568 H   0  0  0  0  0  0  0  0  0  0  0  0
   -1.7592   -1.2590    0.5204 H   0  0  0  0  0  0  0  0  0  0  0  0
   -1.1516    0.2656    1.1508 H   0  0  0  0  0  0  0  0  0  0  0  0
   -1.3900   -0.4714   -1.8301 H   0  0  0  0  0  0  0  0  0  0  0  0
   -0.6757    1.0162   -1.2209 H   0  0  0  0  0  0  0  0  0  0  0  0
    0.2317   -2.7081   -1.8604 H   0  0  0  0  0  0  0  0  0  0  0  0
    2.6331   -3.0647   -1.2458 H   0  0  0  0  0  0  0  0  0  0  0  0
    4.7286   -1.7199    0.0584 H   0  0  0  0  0  0  0  0  0  0  0  0
    5.2298    0.4301    1.2059 H   0  0  0  0  0  0  0  0  0  0  0  0
    3.4901    2.1689    1.4318 H   0  0  0  0  0  0  0  0  0  0  0  0
    1.2146    1.8015    0.5198 H   0  0  0  0  0  0  0  0  0  0  0  0
  1  2  1  0
  2  3  1  0
  2  4  1  0
  4  5  1  0
  5  6  1  0
  6  7  2  0
  7  8  1  0
  8  9  1  0
  9 10  2  0
 10 11  1  0
 11 12  2  0
 12 13  1  0
 13 14  2  0
 14  6  1  0
 14  9  1  0
  1 15  1  0
  1 16  1  0
  1 17  1  0
  3 18  1  0
  3 19  1  0
  3 20  1  0
  4 21  1  0
  4 22  1  0
  5 23  1  0
  5 24  1  0
  7 25  1  0
  8 26  1  0
 10 27  1  0
 11 28  1  0
 12 29  1  0
 13 30  1  0
M  END
$$$$
Tryptamine_like
     RDKit          3D

 25 26  0  0  0  0  0  0  0  0999 V2000
   -3.6885    0.8258   -0.0704 N   0  0  0  0  0  0  0  0  0  0  0  0
   -2.3623    0.2561   -0.4309 C   0  0  0  0  0  0  0  0  0  0  0  0
   -1.5933   -0.1323    0.8299 C   0  0  0  0  0  0  0  0  0  0  0  0
   -0.2681   -0.7239    0.4935 C   0  0  0  0  0  0  0  0  0  0  0  0
    0.0344   -2.0698    0.4271 C   0  0  0  0  0  0  0  0  0  0  0  0
    1.3538   -2.1980    0.0780 N   0  0  0  0  0  0  0  0  0  0  0  0
    1.9183   -0.9570   -0.0989 C   0  0  0  0  0  0  0  0  0  0  0  0
    3.2241   -0.6095   -0.4634 C   0  0  0  0  0  0  0  0  0  0  0  0
    3.5310    0.7501   -0.5566 C   0  0  0  0  0  0  0  0  0  0  0  0
    2.5697    1.7214   -0.2913 C   0  0  0  0  0  0  0  0  0  0  0  0
    1.2676    1.3571    0.0721 C   0  0  0  0  0  0  0  0  0  0  0  0
    0.9302   -0.0095    0.1676 C   0  0  0  0  0  0  0  0  0  0  0  0
   -4.2114    1.0906   -0.9159 H   0  0  0  0  0  0  0  0  0  0  0  0
   -3.5957    1.6704    0.5093 H   0  0  0  0  0  0  0  0  0  0  0  0
   -4.2653    0.1485    0.4462 H   0  0  0  0  0  0  0  0  0  0  0  0
   -1.8403    1.0227   -1.0122 H   0  0  0  0  0  0  0  0  0  0  0  0
   -2.5569   -0.6085   -1.0738 H   0  0  0  0  0  0  0  0  0  0  0  0
   -2.1803   -0.8508    1.4161 H   0  0  0  0  0  0  0  0  0  0  0  0
   -1.4529    0.7474    1.4703 H   0  0  0  0  0  0  0  0  0  0  0  0
   -0.5637   -2.9544    0.6067 H   0  0  0  0  0  0  0  0  0  0  0  0
    1.8512   -3.0726   -0.0319 H   0  0  0  0  0  0  0  0  0  0  0  0
    3.9803   -1.3628   -0.6632 H   0  0  0  0  0  0  0  0  0  0  0  0
    4.5394    1.0523   -0.8335 H   0  0  0  0  0  0  0  0  0  0  0  0
    2.8380    2.7734   -0.3612 H   0  0  0  0  0  0  0  0  0  0  0  0
    0.5407    2.1333    0.2866 H   0  0  0  0  0  0  0  0  0  0  0  0
  1  2  1  0
  2  3  1  0
  3  4  1  0
  4  5  2  0
  5  6  1  0
  6  7  1  0
  7  8  2  0
  8  9  1  0
  9 10  2  0
 10 11  1  0
 11 12  2  0
 12  4  1  0
 12  7  1  0
  1 13  1  0
  1 14  1  0
  1 15  1  0
  2 16  1  0
  2 17  1  0
  3 18  1  0
  3 19  1  0
  5 20  1  0
  6 21  1  0
  8 22  1  0
  9 23  1  0
 10 24  1  0
 11 25  1  0
M  CHG  1   1   1
M  END
$$$$
Tryptamine_like
     RDKit          3D

 24 25  0  0  0  0  0  0  0  0999 V2000
   -2.6911   -1.1914   -0.4856 N   0  0  0  0  0  0  0  0  0  0  0  0
   -2.7972    0.2250   -0.1312 C   0  0  0  0  0  0  0  0  0  0  0  0
   -1.7708    0.6677    0.9220 C   0  0  0  0  0  0  0  0  0  0  0  0
   -0.4042    0.9334    0.3673 C   0  0  0  0  0  0  0  0  0  0  0  0
    0.0709    2.1545   -0.0744 C   0  0  0  0  0  0  0  0  0  0  0  0
    1.3647    1.9898   -0.4883 N   0  0  0  0  0  0  0  0  0  0  0  0
    1.7568    0.6833   -0.3203 C   0  0  0  0  0  0  0  0  0  0  0  0
    2.9834    0.0670   -0.5977 C   0  0  0  0  0  0  0  0  0  0  0  0
    3.0986   -1.2993   -0.3265 C   0  0  0  0  0  0  0  0  0  0  0  0
    2.0280   -2.0180    0.1990 C   0  0  0  0  0  0  0  0  0  0  0  0
    0.8096   -1.3848    0.4708 C   0  0  0  0  0  0  0  0  0  0  0  0
    0.6657   -0.0066    0.2097 C   0  0  0  0  0  0  0  0  0  0  0  0
   -3.4134   -1.4258   -1.1642 H   0  0  0  0  0  0  0  0  0  0  0  0
   -2.8623   -1.7669    0.3364 H   0  0  0  0  0  0  0  0  0  0  0  0
   -3.8038    0.3932    0.2686 H   0  0  0  0  0  0  0  0  0  0  0  0
   -2.7031    0.8304   -1.0397 H   0  0  0  0  0  0  0  0  0  0  0  0
   -1.7118   -0.0684    1.7335 H   0  0  0  0  0  0  0  0  0  0  0  0
   -2.1370    1.5931    1.3866 H   0  0  0  0  0  0  0  0  0  0  0  0
   -0.4035    3.1251   -0.1276 H   0  0  0  0  0  0  0  0  0  0  0  0
    1.9549    2.7196   -0.8614 H   0  0  0  0  0  0  0  0  0  0  0  0
    3.8178    0.6237   -1.0107 H   0  0  0  0  0  0  0  0  0  0  0  0
    4.0370   -1.8084   -0.5330 H   0  0  0  0  0  0  0  0  0  0  0  0
    2.1342   -3.0813    0.3970 H   0  0  0  0  0  0  0  0  0  0  0  0
   -0.0233   -1.9549    0.8699 H   0  0  0  0  0  0  0  0  0  0  0  0
  1  2  1  0
  2  3  1  0
  3  4  1  0
  4  5  2  0
  5  6  1  0
  6  7  1  0
  7  8  2  0
  8  9  1  0
  9 10  2  0
 10 11  1  0
 11 12  2  0
 12  4  1  0
 12  7  1  0
  1 13  1  0
  1 14  1  0
  2 15  1  0
  2 16  1  0
  3 17  1  0
  3 18  1  0
  5 19  1  0
  6 20  1  0
  8 21  1  0
  9 22  1  0
 10 23  1  0
 11 24  1  0
M  END
$$$$
MET_like
     RDKit          3D

 34 35  0  0  0  0  0  0  0  0999 V2000
   -3.8767    0.1500    0.9888 C   0  0  0  0  0  0  0  0  0  0  0  0
   -3.3347   -0.9611    0.1095 C   0  0  0  0  0  0  0  0  0  0  0  0
   -2.3245   -0.4727   -0.9070 N   0  0  0  0  0  0  0  0  0  0  0  0
   -2.9500    0.3639   -1.9956 C   0  0  0  0  0  0  0  0  0  0  0  0
   -1.0817    0.2052   -0.3455 C   0  0  0  0  0  0  0  0  0  0  0  0
   -0.2869   -0.7195    0.5809 C   0  0  0  0  0  0  0  0  0  0  0  0
    1.0083   -0.0967    0.9823 C   0  0  0  0  0  0  0  0  0  0  0  0
    1.2517    0.6097    2.1439 C   0  0  0  0  0  0  0  0  0  0  0  0
    2.5585    1.0225    2.1310 N   0  0  0  0  0  0  0  0  0  0  0  0
    3.1733    0.6093    0.9728 C   0  0  0  0  0  0  0  0  0  0  0  0
    4.4872    0.8095    0.5339 C   0  0  0  0  0  0  0  0  0  0  0  0
    4.8503    0.2582   -0.6974 C   0  0  0  0  0  0  0  0  0  0  0  0
    3.9352   -0.4668   -1.4557 C   0  0  0  0  0  0  0  0  0  0  0  0
    2.6244   -0.6577   -1.0023 C   0  0  0  0  0  0  0  0  0  0  0  0
    2.2308   -0.1070    0.2355 C   0  0  0  0  0  0  0  0  0  0  0  0
   -4.3600    0.9369    0.4029 H   0  0  0  0  0  0  0  0  0  0  0  0
   -3.0926    0.6042    1.6013 H   0  0  0  0  0  0  0  0  0  0  0  0
   -4.6280   -0.2572    1.6737 H   0  0  0  0  0  0  0  0  0  0  0  0
   -2.8464   -1.7367    0.7072 H   0  0  0  0  0  0  0  0  0  0  0  0
   -4.1430   -1.4413   -0.4529 H   0  0  0  0  0  0  0  0  0  0  0  0
   -1.9879   -1.3201   -1.3841 H   0  0  0  0  0  0  0  0  0  0  0  0
   -3.8171   -0.1746   -2.3866 H   0  0  0  0  0  0  0  0  0  0  0  0
   -3.2390    1.3311   -1.5780 H   0  0  0  0  0  0  0  0  0  0  0  0
   -2.2080    0.4923   -2.7884 H   0  0  0  0  0  0  0  0  0  0  0  0
   -0.4712    0.4858   -1.2123 H   0  0  0  0  0  0  0  0  0  0  0  0
   -1.3966    1.1252    0.1588 H   0  0  0  0  0  0  0  0  0  0  0  0
   -0.0946   -1.6776    0.0829 H   0  0  0  0  0  0  0  0  0  0  0  0
   -0.8673   -0.9453    1.4830 H   0  0  0  0  0  0  0  0  0  0  0  0
    0.6176    0.8505    2.9878 H   0  0  0  0  0  0  0  0  0  0  0  0
    3.0156    1.5510    2.8631 H   0  0  0  0  0  0  0  0  0  0  0  0
    5.2073    1.3672    1.1250 H   0  0  0  0  0  0  0  0  0  0  0  0
    5.8663    0.3927   -1.0639 H   0  0  0  0  0  0  0  0  0  0  0  0
    4.2466   -0.8939   -2.4065 H   0  0  0  0  0  0  0  0  0  0  0  0
    1.9330   -1.2369   -1.6051 H   0  0  0  0  0  0  0  0  0  0  0  0
  1  2  1  0
  2  3  1  0
  3  4  1  0
  3  5  1  0
  5  6  1  0
  6  7  1  0
  7  8  2  0
  8  9  1  0
  9 10  1  0
 10 11  2  0
 11 12  1  0
 12 13  2  0
 13 14  1  0
 14 15  2  0
 15  7  1  0
 15 10  1  0
  1 16  1  0
  1 17  1  0
  1 18  1  0
  2 19  1  0
  2 20  1  0
  3 21  1  0
  4 22  1  0
  4 23  1  0
  4 24  1  0
  5 25  1  0
  5 26  1  0
  6 27  1  0
  6 28  1  0
  8 29  1  0
  9 30  1  0
 11 31  1  0
 12 32  1  0
 13 33  1  0
 14 34  1  0
M  CHG  1   3   1
M  END
$$$$
MET_like
     RDKit          3D

 33 34  0  0  0  0  0  0  0  0999 V2000
   -3.8675    0.3713    1.1696 C   0  0  0  0  0  0  0  0  0  0  0  0
   -3.3708    0.8469   -0.1927 C   0  0  0  0  0  0  0  0  0  0  0  0
   -2.4142   -0.0264   -0.8868 N   0  0  0  0  0  0  0  0  0  0  0  0
   -3.0389   -1.2743   -1.3281 C   0  0  0  0  0  0  0  0  0  0  0  0
   -1.1784   -0.3126   -0.1331 C   0  0  0  0  0  0  0  0  0  0  0  0
   -0.3514    0.9357    0.2231 C   0  0  0  0  0  0  0  0  0  0  0  0
    0.9505    0.5813    0.8770 C   0  0  0  0  0  0  0  0  0  0  0  0
    1.2044    0.5486    2.2348 C   0  0  0  0  0  0  0  0  0  0  0  0
    2.5094    0.1792    2.4196 N   0  0  0  0  0  0  0  0  0  0  0  0
    3.1206   -0.0351    1.2068 C   0  0  0  0  0  0  0  0  0  0  0  0
    4.4335   -0.4240    0.9140 C   0  0  0  0  0  0  0  0  0  0  0  0
    4.7823   -0.5655   -0.4323 C   0  0  0  0  0  0  0  0  0  0  0  0
    3.8540   -0.3268   -1.4427 C   0  0  0  0  0  0  0  0  0  0  0  0
    2.5458    0.0617   -1.1318 C   0  0  0  0  0  0  0  0  0  0  0  0
    2.1676    0.2117    0.2184 C   0  0  0  0  0  0  0  0  0  0  0  0
   -4.5924    1.0890    1.5683 H   0  0  0  0  0  0  0  0  0  0  0  0
   -4.3691   -0.5986    1.1035 H   0  0  0  0  0  0  0  0  0  0  0  0
   -3.0525    0.2939    1.8953 H   0  0  0  0  0  0  0  0  0  0  0  0
   -2.9317    1.8450   -0.0790 H   0  0  0  0  0  0  0  0  0  0  0  0
   -4.2404    1.0050   -0.8439 H   0  0  0  0  0  0  0  0  0  0  0  0
   -3.3156   -1.9247   -0.4915 H   0  0  0  0  0  0  0  0  0  0  0  0
   -2.3574   -1.8326   -1.9800 H   0  0  0  0  0  0  0  0  0  0  0  0
   -3.9369   -1.0719   -1.9224 H   0  0  0  0  0  0  0  0  0  0  0  0
   -1.3980   -0.8862    0.7769 H   0  0  0  0  0  0  0  0  0  0  0  0
   -0.5453   -0.9632   -0.7520 H   0  0  0  0  0  0  0  0  0  0  0  0
   -0.9146    1.5868    0.9022 H   0  0  0  0  0  0  0  0  0  0  0  0
   -0.1533    1.5222   -0.6828 H   0  0  0  0  0  0  0  0  0  0  0  0
    0.5668    0.7588    3.0831 H   0  0  0  0  0  0  0  0  0  0  0  0
    2.9652    0.0772    3.3153 H   0  0  0  0  0  0  0  0  0  0  0  0
    5.1592   -0.6101    1.6986 H   0  0  0  0  0  0  0  0  0  0  0  0
    5.7943   -0.8660   -0.6936 H   0  0  0  0  0  0  0  0  0  0  0  0
    4.1454   -0.4419   -2.4836 H   0  0  0  0  0  0  0  0  0  0  0  0
    1.8294    0.2455   -1.9272 H   0  0  0  0  0  0  0  0  0  0  0  0
  1  2  1  0
  2  3  1  0
  3  4  1  0
  3  5  1  0
  5  6  1  0
  6  7  1  0
  7  8  2  0
  8  9  1  0
  9 10  1  0
 10 11  2  0
 11 12  1  0
 12 13  2  0
 13 14  1  0
 14 15  2  0
 15  7  1  0
 15 10  1  0
  1 16  1  0
  1 17  1  0
  1 18  1  0
  2 19  1  0
  2 20  1  0
  4 21  1  0
  4 22  1  0
  4 23  1  0
  5 24  1  0
  5 25  1  0
  6 26  1  0
  6 27  1  0
  8 28  1  0
  9 29  1  0
 11 30  1  0
 12 31  1  0
 13 32  1  0
 14 33  1  0
M  END
$$$$
