Serotonin
     RDKit          3D

 25 26  0  0  0  0  0  0  0  0999 V2000
    3.4372   -0.7148    0.5932 N   0  0  0  0  0  0  0  0  0  0  0  0
    2.6520    0.5204    0.5566 C   0  0  0  0  0  0  0  0  0  0  0  0
    1.8569    0.6969   -0.7458 C   0  0  0  0  0  0  0  0  0  0  0  0
    0.6543   -0.1906   -0.8457 C   0  0  0  0  0  0  0  0  0  0  0  0
    0.6011   -1.4306   -1.4523 C   0  0  0  0  0  0  0  0  0  0  0  0
   -0.6699   -1.9195   -1.3269 N   0  0  0  0  0  0  0  0  0  0  0  0
   -1.4639   -1.0170   -0.6595 C   0  0  0  0  0  0  0  0  0  0  0  0
   -2.8192   -1.0925   -0.3147 C   0  0  0  0  0  0  0  0  0  0  0  0
   -3.3715   -0.0114    0.3768 C   0  0  0  0  0  0  0  0  0  0  0  0
   -2.5926    1.0902    0.7045 C   0  0  0  0  0  0  0  0  0  0  0  0
   -3.1981    2.1106    1.3818 O   0  0  0  0  0  0  0  0  0  0  0  0
   -1.2409    1.1596    0.3587 C   0  0  0  0  0  0  0  0  0  0  0  0
   -0.6607    0.0797   -0.3418 C   0  0  0  0  0  0  0  0  0  0  0  0
    4.0905   -0.7332   -0.1875 H   0  0  0  0  0  0  0  0  0  0  0  0
    3.9940   -0.7385    1.4455 H   0  0  0  0  0  0  0  0  0  0  0  0
    3.3446    1.3635    0.6602 H   0  0  0  0  0  0  0  0  0  0  0  0
    1.9807    0.5421    1.4223 H   0  0  0  0  0  0  0  0  0  0  0  0
    1.5274    1.7416   -0.8127 H   0  0  0  0  0  0  0  0  0  0  0  0
    2.5121    0.5344   -1.6114 H   0  0  0  0  0  0  0  0  0  0  0  0
    1.3689   -2.0102   -1.9471 H   0  0  0  0  0  0  0  0  0  0  0  0
   -0.9851   -2.8157   -1.6702 H   0  0  0  0  0  0  0  0  0  0  0  0
   -3.4245   -1.9556   -0.5705 H   0  0  0  0  0  0  0  0  0  0  0  0
   -4.4199   -0.0327    0.6621 H   0  0  0  0  0  0  0  0  0  0  0  0
   -2.5375    2.8030    1.5455 H   0  0  0  0  0  0  0  0  0  0  0  0
   -0.6361    2.0204    0.6172 H   0  0  0  0  0  0  0  0  0  0  0  0
  1  2  1  0
  2  3  1  0
  3  4  1  0
  4  5  2  0
  5  6  1  0
  6  7  1  0
  7  8  2  0
  8  9  1  0
  9 10  2  0
 10 11  1  0
 10 12  1  0
 12 13  2  0
 13  4  1  0
 13  7  1  0
  1 14  1  0
  1 15  1  0
  2 16  1  0
  2 17  1  0
  3 18  1  0
  3 19  1  0
  5 20  1  0
  6 21  1  0
  8 22  1  0
  9 23  1  0
 11 24  1  0
 12 25  1  0
M  END
$$$$
